Version 4
SHEET 1 984 680
WIRE 48 48 -112 48
WIRE -112 64 -112 48
WIRE 48 80 48 48
WIRE 112 80 48 80
SYMBOL SymbCapteurGaz 96 64 R0
SYMATTR InstName X1
SYMBOL voltage 928 0 R0
SYMATTR InstName V1
SYMBOL voltage 16 352 R0
SYMATTR InstName V2
SYMBOL voltage -112 48 R0
SYMATTR InstName V3
